/*--------------------------------*- C++ -*----------------------------------*\
  =========                 |
  \\      /  F ield         | OpenFOAM: The Open Source CFD Toolbox
   \\    /   O peration     | Website:  https://openfoam.org
    \\  /    A nd           | Version:  8
     \\/     M anipulation  |
\*---------------------------------------------------------------------------*/
FoamFile
{
    version     2.0;
    format      binary;
    class       polyBoundaryMesh;
    location    "constant/polyMesh";
    object      boundary;
}
// * * * * * * * * * * * * * * * * * * * * * * * * * * * * * * * * * * * * * //

4
(
    walls
    {
        type            patch;
        physicalType    patch;
        nFaces          1062;
        startFace       12016;
    }
    top
    {
        type            patch;
        physicalType    patch;
        nFaces          275;
        startFace       13078;
    }
    bot
    {
        type            patch;
        physicalType    patch;
        nFaces          271;
        startFace       13353;
    }
    stirrer
    {
        type            patch;
        physicalType    patch;
        nFaces          260;
        startFace       13624;
    }
)

// ************************************************************************* //
