/*--------------------------------*- C++ -*----------------------------------*\
  =========                 |
  \\      /  F ield         | OpenFOAM: The Open Source CFD Toolbox
   \\    /   O peration     | Website:  https://openfoam.org
    \\  /    A nd           | Version:  6
     \\/     M anipulation  |
\*---------------------------------------------------------------------------*/
FoamFile
{
    version     2.0;
    format      ascii;
    class       dictionary;
    location    "constant";
    object      phaseProperties;
}
// * * * * * * * * * * * * * * * * * * * * * * * * * * * * * * * * * * * * * //

phases (particles water);

particles
{
    residualAlpha   1e-6;

    diameterModel constant;
    constantCoeffs
    {
        d               3e-4;
    }

    alphaMax        0.62;
    residualAlpha   1e-6;
}

water
{
    residualAlpha   0;

    diameterModel constant;
    constantCoeffs
    {
        d               1;
    }

    residualAlpha   0;
}

blending
{
    default
    {
        type            none;
        continuousPhase water;
    }
}

sigma
(
    (particles and water) 0
);

aspectRatio
(
);

drag
(
    (particles in water)
    {
        type            GidaspowErgunWenYu;
        residualRe      1e-3;
        swarmCorrection
        {
            type        none;
        }
    }
);

virtualMass
(
);

heatTransfer
(
    (particles in water)
    {
        type            RanzMarshall;
        residualAlpha   1e-3;
    }
);

phaseTransfer
(
);

lift
(
);

wallLubrication
(
);

turbulentDispersion
(
);

// Minimum allowable pressure
pMin            10000;


// ************************************************************************* //
